Version 4
SHEET 1 880 680
WIRE -32 -16 -448 -16
WIRE -32 96 -32 -16
WIRE -32 96 -80 96
WIRE -80 160 -80 96
WIRE 48 160 -80 160
WIRE 48 176 48 160
WIRE 112 176 48 176
WIRE 288 176 224 176
WIRE 464 176 288 176
WIRE 48 256 48 176
WIRE 96 256 48 256
WIRE 112 256 96 256
WIRE 288 256 288 176
WIRE 288 256 192 256
WIRE -448 288 -448 -16
WIRE 288 288 288 256
WIRE 48 320 48 256
WIRE 48 320 -16 320
WIRE 96 320 96 256
WIRE 96 336 96 320
WIRE 144 384 96 384
WIRE 288 384 288 368
WIRE 288 384 224 384
WIRE 96 432 96 384
WIRE 144 432 96 432
WIRE 288 432 288 384
WIRE 288 432 224 432
WIRE -448 576 -448 320
WIRE -16 576 -16 320
WIRE -16 576 -448 576
FLAG 48 384 0
FLAG 400 288 0
SYMBOL Dig_Add\\74HC\\74hc14 160 128 R0
SYMATTR InstName U1
SYMBOL cap 32 320 R0
WINDOW 3 26 60 Left 2
SYMATTR Value 470n
SYMATTR InstName C1
SYMBOL res 208 240 R90
WINDOW 0 0 56 VBottom 2
WINDOW 3 32 56 VTop 2
SYMATTR InstName R1
SYMATTR Value 51k
SYMBOL diode 112 384 R180
WINDOW 0 24 64 Left 2
WINDOW 3 24 0 Left 2
SYMATTR InstName D1
SYMBOL res 272 272 R0
SYMATTR InstName R2
SYMATTR Value 2.2k
SYMBOL res 240 368 R90
WINDOW 0 0 56 VBottom 2
WINDOW 3 32 56 VTop 2
SYMATTR InstName R3
SYMATTR Value 22k
SYMBOL res 240 416 R90
WINDOW 0 0 56 VBottom 2
WINDOW 3 32 56 VTop 2
SYMATTR InstName 22k
SYMATTR Value 1k
SYMBOL MiniSyms4\\voltage- -448 304 R0
SYMATTR InstName V1
SYMATTR Value 5
TEXT 32 520 Left 2 !.tran 10m
TEXT 352 480 Left 2 !.lib 74hc.lib
