Version 4
SHEET 1 880 680
WIRE 112 80 48 80
WIRE 160 80 112 80
WIRE 304 80 272 80
WIRE 48 96 48 80
WIRE 112 144 112 80
WIRE 176 144 112 144
WIRE 304 144 304 80
WIRE 304 144 256 144
WIRE 48 192 48 128
WIRE 112 192 112 144
WIRE 112 192 48 192
FLAG 112 256 0
SYMBOL res 272 128 R90
WINDOW 0 0 56 VBottom 2
WINDOW 3 32 56 VTop 2
SYMATTR InstName R1
SYMATTR Value 51k
SYMBOL Dig_Add\\74HC\\74hc14 208 32 R0
SYMATTR InstName U1
SYMBOL cap 96 192 R0
SYMATTR InstName C1
SYMATTR Value 470n
SYMBOL MiniSyms4\\voltage- 48 112 R0
SYMATTR InstName V1
TEXT 304 256 Left 2 !.lib 74hc.lib
TEXT 36 280 Left 2 !.tran 10m
