Version 4
SHEET 1 880 680
WIRE 128 80 32 80
WIRE 256 80 240 80
WIRE 32 128 32 80
WIRE 32 128 -64 128
WIRE 32 144 32 128
WIRE 96 144 32 144
WIRE 144 144 96 144
WIRE 256 144 256 80
WIRE 256 144 224 144
WIRE 32 160 32 144
WIRE -64 176 -64 160
WIRE 32 176 32 160
WIRE 32 176 -64 176
WIRE 96 192 96 144
WIRE 112 192 96 192
WIRE 256 192 256 144
WIRE 32 224 32 208
WIRE 32 288 32 224
FLAG 32 288 0
SYMBOL MiniSyms4\\voltage- -64 144 R0
SYMATTR InstName V1
SYMATTR Value 5
SYMBOL res 240 128 R90
WINDOW 0 0 56 VBottom 2
WINDOW 3 32 56 VTop 2
SYMATTR InstName R1
SYMATTR Value 51k
SYMBOL Dig_Add\\74HC\\74hc14 176 32 R0
SYMATTR InstName U1
SYMBOL cap 16 160 R0
SYMATTR InstName C1
SYMATTR Value 470n
SYMBOL diode 176 176 R90
WINDOW 0 0 32 VBottom 2
WINDOW 3 32 32 VTop 2
SYMATTR InstName D1
SYMBOL res 272 176 R90
WINDOW 0 0 56 VBottom 2
WINDOW 3 32 56 VTop 2
SYMATTR InstName R2
SYMATTR Value 1k
TEXT 12 312 Left 2 !.tran 100m
TEXT 224 272 Left 2 !.lib 74hc.lib
