Version 4
SHEET 1 880 680
WIRE 112 80 48 80
WIRE 160 80 112 80
WIRE 304 80 272 80
WIRE 368 80 304 80
WIRE 48 96 48 80
WIRE 112 144 112 80
WIRE 144 144 112 144
WIRE 176 144 144 144
WIRE 304 144 304 80
WIRE 304 144 256 144
WIRE 336 144 304 144
WIRE 48 192 48 128
WIRE 112 192 112 144
WIRE 112 192 48 192
WIRE 144 224 144 144
WIRE 176 224 144 224
WIRE 256 224 240 224
WIRE 336 224 336 144
WIRE 256 272 256 224
WIRE 256 272 208 272
WIRE 208 320 208 272
WIRE 224 320 208 320
WIRE 336 320 336 304
WIRE 336 320 304 320
WIRE 208 384 208 320
WIRE 240 384 208 384
WIRE 336 384 336 320
WIRE 336 384 320 384
FLAG 112 256 0
SYMBOL res 272 128 R90
WINDOW 0 0 56 VBottom 2
WINDOW 3 32 56 VTop 2
SYMATTR InstName R1
SYMATTR Value 51k
SYMBOL Dig_Add\\74HC\\74hc14 208 32 R0
SYMATTR InstName U1
SYMBOL cap 96 192 R0
SYMATTR InstName C1
SYMATTR Value 470n
SYMBOL MiniSyms4\\voltage- 48 112 R0
SYMATTR InstName V1
SYMATTR Value 5v
SYMBOL diode 240 208 R90
WINDOW 0 0 32 VBottom 2
WINDOW 3 32 32 VTop 2
SYMATTR InstName D1
SYMBOL res 320 208 R0
SYMATTR InstName R2
SYMATTR Value 2.2
SYMBOL res 320 304 R90
WINDOW 0 0 56 VBottom 2
WINDOW 3 32 56 VTop 2
SYMATTR InstName R3
SYMATTR Value 22k
SYMBOL res 336 368 R90
WINDOW 0 0 56 VBottom 2
WINDOW 3 32 56 VTop 2
SYMATTR InstName R4
SYMATTR Value 3k
TEXT 304 256 Left 2 !.lib 74hc.lib
TEXT 40 280 Left 2 !.tran 100m
